123914
  -OEChem-04062215562D

 82 83  0     1  0  0  0  0  0999 V2000
    6.3301   -2.3730    0.0000 O   0  0  0  0  0  0  0  0  0  0  0  0
    6.8301   -0.5070    0.0000 O   0  0  0  0  0  0  0  0  0  0  0  0
    6.8301    2.4930    0.0000 O   0  0  0  0  0  0  0  0  0  0  0  0
    3.7320   -0.8730    0.0000 O   0  0  0  0  0  0  0  0  0  0  0  0
    8.5622    2.4930    0.0000 O   0  0  0  0  0  0  0  0  0  0  0  0
    5.0981    0.4930    0.0000 O   0  0  0  0  0  0  0  0  0  0  0  0
    8.5622    0.4930    0.0000 O   0  0  0  0  0  0  0  0  0  0  0  0
    4.5980   -4.3730    0.0000 O   0  0  0  0  0  0  0  0  0  0  0  0
    7.1962   -3.8730    0.0000 O   0  0  0  0  0  0  0  0  0  0  0  0
    7.8302   -2.2390    0.0000 O   0  0  0  0  0  0  0  0  0  0  0  0
    7.8301   -0.5070    0.0000 O   0  0  0  0  0  0  0  0  0  0  0  0
    5.0981    3.4930    0.0000 O   0  0  0  0  0  0  0  0  0  0  0  0
    7.1962   -5.8730    0.0000 O   0  0  0  0  0  0  0  0  0  0  0  0
   10.2942    3.4930    0.0000 O   0  0  0  0  0  0  0  0  0  0  0  0
    6.8301    3.4930    0.0000 O   0  0  0  0  0  0  0  0  0  0  0  0
    2.8660   -1.3730    0.0000 O   0  0  0  0  0  0  0  0  0  0  0  0
    8.5622    5.4930    0.0000 O   0  0  0  0  0  0  0  0  0  0  0  0
    6.8301    5.4930    0.0000 O   0  0  0  0  0  0  0  0  0  0  0  0
   10.2942    6.4930    0.0000 O   0  0  0  0  0  0  0  0  0  0  0  0
    3.7320   -2.8730    0.0000 N   0  0  0  0  0  0  0  0  0  0  0  0
    6.3301   -1.3730    0.0000 C   0  0  2  0  0  0  0  0  0  0  0  0
    4.5980   -2.3730    0.0000 C   0  0  1  0  0  0  0  0  0  0  0  0
    5.4641   -2.8730    0.0000 C   0  0  2  0  0  0  0  0  0  0  0  0
    4.5981   -1.3730    0.0000 C   0  0  2  0  0  0  0  0  0  0  0  0
    5.4641   -0.8730    0.0000 C   0  0  0  0  0  0  0  0  0  0  0  0
    6.8301    0.4930    0.0000 C   0  0  1  0  0  0  0  0  0  0  0  0
    5.9641    0.9930    0.0000 C   0  0  2  0  0  0  0  0  0  0  0  0
    7.6962    0.9930    0.0000 C   0  0  2  0  0  0  0  0  0  0  0  0
    5.4641   -3.8730    0.0000 C   0  0  1  0  0  0  0  0  0  0  0  0
    5.9641    1.9930    0.0000 C   0  0  1  0  0  0  0  0  0  0  0  0
    7.6962    1.9930    0.0000 C   0  0  1  0  0  0  0  0  0  0  0  0
    6.3302   -4.3730    0.0000 C   0  0  1  0  0  0  0  0  0  0  0  0
    7.3302   -1.3730    0.0000 C   0  0  0  0  0  0  0  0  0  0  0  0
    5.0981    2.4930    0.0000 C   0  0  0  0  0  0  0  0  0  0  0  0
    8.5622    3.4930    0.0000 C   0  0  1  0  0  0  0  0  0  0  0  0
    6.3302   -5.3730    0.0000 C   0  0  0  0  0  0  0  0  0  0  0  0
    2.8660   -2.3730    0.0000 C   0  0  0  0  0  0  0  0  0  0  0  0
    9.4282    3.9930    0.0000 C   0  0  1  0  0  0  0  0  0  0  0  0
    7.6962    3.9930    0.0000 C   0  0  1  0  0  0  0  0  0  0  0  0
    9.4282    4.9930    0.0000 C   0  0  2  0  0  0  0  0  0  0  0  0
    2.0000   -2.8730    0.0000 C   0  0  0  0  0  0  0  0  0  0  0  0
    7.6962    4.9930    0.0000 C   0  0  0  0  0  0  0  0  0  0  0  0
   10.2942    5.4930    0.0000 C   0  0  0  0  0  0  0  0  0  0  0  0
    4.0611   -2.0629    0.0000 H   0  0  0  0  0  0  0  0  0  0  0  0
    6.2002   -3.2980    0.0000 H   0  0  0  0  0  0  0  0  0  0  0  0
    4.5981   -0.7530    0.0000 H   0  0  0  0  0  0  0  0  0  0  0  0
    6.2932    0.1830    0.0000 H   0  0  0  0  0  0  0  0  0  0  0  0
    5.8626   -0.3981    0.0000 H   0  0  0  0  0  0  0  0  0  0  0  0
    5.0656   -0.3981    0.0000 H   0  0  0  0  0  0  0  0  0  0  0  0
    5.9641    0.3730    0.0000 H   0  0  0  0  0  0  0  0  0  0  0  0
    7.6962    0.3730    0.0000 H   0  0  0  0  0  0  0  0  0  0  0  0
    5.4641   -4.4930    0.0000 H   0  0  0  0  0  0  0  0  0  0  0  0
    5.9641    2.6130    0.0000 H   0  0  0  0  0  0  0  0  0  0  0  0
    8.2331    1.6830    0.0000 H   0  0  0  0  0  0  0  0  0  0  0  0
    3.7320   -3.4930    0.0000 H   0  0  0  0  0  0  0  0  0  0  0  0
    6.3302   -3.7530    0.0000 H   0  0  0  0  0  0  0  0  0  0  0  0
    4.4875    2.6007    0.0000 H   0  0  0  0  0  0  0  0  0  0  0  0
    4.8860    1.9104    0.0000 H   0  0  0  0  0  0  0  0  0  0  0  0
    3.7320   -0.2530    0.0000 H   0  0  0  0  0  0  0  0  0  0  0  0
    8.0252    3.1830    0.0000 H   0  0  0  0  0  0  0  0  0  0  0  0
    4.5611    0.8030    0.0000 H   0  0  0  0  0  0  0  0  0  0  0  0
    9.0991    0.8030    0.0000 H   0  0  0  0  0  0  0  0  0  0  0  0
    4.5980   -4.9930    0.0000 H   0  0  0  0  0  0  0  0  0  0  0  0
    5.7196   -5.2654    0.0000 H   0  0  0  0  0  0  0  0  0  0  0  0
    6.1181   -5.9556    0.0000 H   0  0  0  0  0  0  0  0  0  0  0  0
    9.9651    4.3030    0.0000 H   0  0  0  0  0  0  0  0  0  0  0  0
    7.1592    4.3030    0.0000 H   0  0  0  0  0  0  0  0  0  0  0  0
    7.7332   -4.1830    0.0000 H   0  0  0  0  0  0  0  0  0  0  0  0
    8.4501   -2.2390    0.0000 H   0  0  0  0  0  0  0  0  0  0  0  0
    9.4282    5.6130    0.0000 H   0  0  0  0  0  0  0  0  0  0  0  0
    4.5611    3.8030    0.0000 H   0  0  0  0  0  0  0  0  0  0  0  0
    8.3067    4.8854    0.0000 H   0  0  0  0  0  0  0  0  0  0  0  0
    7.9082    5.5756    0.0000 H   0  0  0  0  0  0  0  0  0  0  0  0
    1.6900   -2.3361    0.0000 H   0  0  0  0  0  0  0  0  0  0  0  0
    1.4631   -3.1830    0.0000 H   0  0  0  0  0  0  0  0  0  0  0  0
    2.3100   -3.4100    0.0000 H   0  0  0  0  0  0  0  0  0  0  0  0
    7.1962   -6.4930    0.0000 H   0  0  0  0  0  0  0  0  0  0  0  0
   10.8312    3.8030    0.0000 H   0  0  0  0  0  0  0  0  0  0  0  0
    6.2932    3.8030    0.0000 H   0  0  0  0  0  0  0  0  0  0  0  0
   10.8312    5.1830    0.0000 H   0  0  0  0  0  0  0  0  0  0  0  0
    8.5622    6.1130    0.0000 H   0  0  0  0  0  0  0  0  0  0  0  0
    6.8301    6.1130    0.0000 H   0  0  0  0  0  0  0  0  0  0  0  0
  1 21  1  0  0  0  0
  1 23  1  0  0  0  0
 21  2  1  1  0  0  0
 26  2  1  1  0  0  0
  3 30  1  0  0  0  0
  3 31  1  0  0  0  0
 24  4  1  1  0  0  0
  4 59  1  0  0  0  0
 31  5  1  1  0  0  0
 35  5  1  6  0  0  0
 27  6  1  1  0  0  0
  6 61  1  0  0  0  0
 28  7  1  6  0  0  0
  7 62  1  0  0  0  0
 29  8  1  1  0  0  0
  8 63  1  0  0  0  0
 32  9  1  6  0  0  0
  9 68  1  0  0  0  0
 10 33  1  0  0  0  0
 10 69  1  0  0  0  0
 11 33  2  0  0  0  0
 12 34  1  0  0  0  0
 12 71  1  0  0  0  0
 13 36  1  0  0  0  0
 13 77  1  0  0  0  0
 38 14  1  1  0  0  0
 14 78  1  0  0  0  0
 39 15  1  6  0  0  0
 15 79  1  0  0  0  0
 16 37  2  0  0  0  0
 40 17  1  1  0  0  0
 17 81  1  0  0  0  0
 18 42  1  0  0  0  0
 18 82  1  0  0  0  0
 19 43  2  0  0  0  0
 22 20  1  6  0  0  0
 20 37  1  0  0  0  0
 20 55  1  0  0  0  0
 21 25  1  0  0  0  0
 21 33  1  0  0  0  0
 22 23  1  0  0  0  0
 22 24  1  0  0  0  0
 22 44  1  0  0  0  0
 23 29  1  0  0  0  0
 23 45  1  6  0  0  0
 24 25  1  0  0  0  0
 24 46  1  0  0  0  0
 25 48  1  0  0  0  0
 25 49  1  0  0  0  0
 26 27  1  0  0  0  0
 26 28  1  0  0  0  0
 26 47  1  0  0  0  0
 27 30  1  0  0  0  0
 27 50  1  0  0  0  0
 28 31  1  0  0  0  0
 28 51  1  0  0  0  0
 29 32  1  0  0  0  0
 29 52  1  0  0  0  0
 30 34  1  1  0  0  0
 30 53  1  0  0  0  0
 31 54  1  0  0  0  0
 32 36  1  0  0  0  0
 32 56  1  0  0  0  0
 34 57  1  0  0  0  0
 34 58  1  0  0  0  0
 35 38  1  0  0  0  0
 35 39  1  0  0  0  0
 35 60  1  0  0  0  0
 36 64  1  0  0  0  0
 36 65  1  0  0  0  0
 37 41  1  0  0  0  0
 38 40  1  0  0  0  0
 38 66  1  0  0  0  0
 39 42  1  0  0  0  0
 39 67  1  0  0  0  0
 40 43  1  0  0  0  0
 40 70  1  0  0  0  0
 41 74  1  0  0  0  0
 41 75  1  0  0  0  0
 41 76  1  0  0  0  0
 42 72  1  0  0  0  0
 42 73  1  0  0  0  0
 43 80  1  0  0  0  0
M  END
> <PUBCHEM_COMPOUND_CID>
123914

> <PUBCHEM_COMPOUND_CANONICALIZED>
1

> <PUBCHEM_CACTVS_COMPLEXITY>
927

> <PUBCHEM_CACTVS_HBOND_ACCEPTOR>
19

> <PUBCHEM_CACTVS_HBOND_DONOR>
13

> <PUBCHEM_CACTVS_ROTATABLE_BOND>
15

> <PUBCHEM_CACTVS_SUBSKEYS>
AAADcfB6PgAAAAAAAAAAAAAAAAAAAAAAAAAkSAAAAAAAAAAAAAAAHgAQCAAACDzxgAcCCALABgAIAAmQmAIAAAAAAAAAAIFIAAATEBYAgAQnQAAHNgCXAAH6/a/QAAAAAAAAAAAAAAAAAAAAAAAAAAAAAA==

> <PUBCHEM_IUPAC_OPENEYE_NAME>
(2S,4S,5R,6R)-5-acetamido-2-[(2S,3R,4S,5S,6R)-2-[(1R,2R,3R)-1-[(1R)-1,2-dihydroxyethyl]-2,3-dihydroxy-4-oxo-butoxy]-3,5-dihydroxy-6-(hydroxymethyl)tetrahydropyran-4-yl]oxy-4-hydroxy-6-[(1R,2R)-1,2,3-trihydroxypropyl]tetrahydropyran-2-carboxylic acid

> <PUBCHEM_IUPAC_CAS_NAME>
(2S,4S,5R,6R)-5-acetamido-2-[[(2R,3S,4S,5R,6S)-3,5-dihydroxy-2-(hydroxymethyl)-6-[(2R,3R,4R,5R)-1,2,4,5-tetrahydroxy-6-oxohexan-3-yl]oxy-4-oxanyl]oxy]-4-hydroxy-6-[(1R,2R)-1,2,3-trihydroxypropyl]-2-oxanecarboxylic acid

> <PUBCHEM_IUPAC_NAME_MARKUP>
(2<I>S</I>,4<I>S</I>,5<I>R</I>,6<I>R</I>)-5-acetamido-2-[(2<I>R</I>,3<I>S</I>,4<I>S</I>,5<I>R</I>,6<I>S</I>)-3,5-dihydroxy-2-(hydroxymethyl)-6-[(2<I>R</I>,3<I>R</I>,4<I>R</I>,5<I>R</I>)-1,2,4,5-tetrahydroxy-6-oxohexan-3-yl]oxyoxan-4-yl]oxy-4-hydroxy-6-[(1<I>R</I>,2<I>R</I>)-1,2,3-trihydroxypropyl]oxane-2-carboxylic acid

> <PUBCHEM_IUPAC_NAME>
(2S,4S,5R,6R)-5-acetamido-2-[(2R,3S,4S,5R,6S)-3,5-dihydroxy-2-(hydroxymethyl)-6-[(2R,3R,4R,5R)-1,2,4,5-tetrahydroxy-6-oxohexan-3-yl]oxyoxan-4-yl]oxy-4-hydroxy-6-[(1R,2R)-1,2,3-trihydroxypropyl]oxane-2-carboxylic acid

> <PUBCHEM_IUPAC_SYSTEMATIC_NAME>
(2S,4S,5R,6R)-5-acetamido-2-[(2R,3S,4S,5R,6S)-2-(hydroxymethyl)-3,5-bis(oxidanyl)-6-[(2R,3R,4R,5R)-1,2,4,5-tetrakis(oxidanyl)-6-oxidanylidene-hexan-3-yl]oxy-oxan-4-yl]oxy-4-oxidanyl-6-[(1R,2R)-1,2,3-tris(oxidanyl)propyl]oxane-2-carboxylic acid

> <PUBCHEM_IUPAC_TRADITIONAL_NAME>
(2S,4S,5R,6R)-5-acetamido-2-[(2S,3R,4S,5S,6R)-2-[(1R,2R,3R)-1-[(1R)-1,2-dihydroxyethyl]-2,3-dihydroxy-4-keto-butoxy]-3,5-dihydroxy-6-methylol-tetrahydropyran-4-yl]oxy-4-hydroxy-6-[(1R,2R)-1,2,3-trihydroxypropyl]tetrahydropyran-2-carboxylic acid

> <PUBCHEM_IUPAC_INCHI>
InChI=1S/C23H39NO19/c1-7(29)24-13-8(30)2-23(22(38)39,42-19(13)15(35)10(32)4-26)43-20-16(36)12(6-28)40-21(17(20)37)41-18(11(33)5-27)14(34)9(31)3-25/h3,8-21,26-28,30-37H,2,4-6H2,1H3,(H,24,29)(H,38,39)/t8-,9-,10+,11+,12+,13+,14+,15+,16-,17+,18+,19+,20-,21-,23-/m0/s1

> <PUBCHEM_IUPAC_INCHIKEY>
OIZGSVFYNBZVIK-FHHHURIISA-N

> <PUBCHEM_XLOGP3_AA>
-7.5

> <PUBCHEM_EXACT_MASS>
633.21162801

> <PUBCHEM_MOLECULAR_FORMULA>
C23H39NO19

> <PUBCHEM_MOLECULAR_WEIGHT>
633.6

> <PUBCHEM_OPENEYE_CAN_SMILES>
CC(=O)NC1C(CC(OC1C(C(CO)O)O)(C(=O)O)OC2C(C(OC(C2O)OC(C(CO)O)C(C(C=O)O)O)CO)O)O

> <PUBCHEM_OPENEYE_ISO_SMILES>
CC(=O)N[C@@H]1[C@H](C[C@@](O[C@H]1[C@@H]([C@@H](CO)O)O)(C(=O)O)O[C@H]2[C@H]([C@H](O[C@H]([C@@H]2O)O[C@H]([C@@H](CO)O)[C@@H]([C@H](C=O)O)O)CO)O)O

> <PUBCHEM_CACTVS_TPSA>
343

> <PUBCHEM_MONOISOTOPIC_WEIGHT>
633.21162801

> <PUBCHEM_TOTAL_CHARGE>
0

> <PUBCHEM_HEAVY_ATOM_COUNT>
43

> <PUBCHEM_ATOM_DEF_STEREO_COUNT>
15

> <PUBCHEM_ATOM_UDEF_STEREO_COUNT>
0

> <PUBCHEM_BOND_DEF_STEREO_COUNT>
0

> <PUBCHEM_BOND_UDEF_STEREO_COUNT>
0

> <PUBCHEM_ISOTOPIC_ATOM_COUNT>
0

> <PUBCHEM_COMPONENT_COUNT>
1

> <PUBCHEM_CACTVS_TAUTO_COUNT>
12

> <PUBCHEM_COORDINATE_TYPE>
1
5
255

> <PUBCHEM_BONDANNOTATIONS>
38  14  5
39  15  6
40  17  5
21  2  5
26  2  5
22  20  6
23  45  6
30  34  5
24  4  5
31  5  5
35  5  6
27  6  5
28  7  6
29  8  5
32  9  6

$$$$
